--- Job generateIncludeFile.gms Start 10/27/23 12:51:25 45.1.0 88bbff72 WEX-WEI x86 64bit/MS Windows
--- Applying:
    C:\GAMS\45\gmsprmNT.txt
    C:\Users\erwin\Documents\GAMS\gamsconfig.yaml
--- GAMS Parameters defined
    MIP CPLEX
    Input C:\projects\OptimizationModels\d3maps\nuts2map-v2\generateIncludeFile.gms
    PageWidth 130
    PageSize 0
    ScrDir C:\projects\OptimizationModels\d3maps\nuts2map-v2\225a\
    SysDir C:\GAMS\45\
    LogOption 3
    ErrMsg 1
    ErrorLog 99
    IDE 1
    LstTitleLeftAligned 1
Licensee: Eval License                                   G221205|0002CO-GEN
          Amsterdam Optimization Modeling Group,                     DCE378
          C:\Users\erwin\Documents\GAMS\gamslice.txt
          License Admin: Erwin Kalvelagen, info@amsterdamoptimization.com  
          Evaluation license: Not for commercial or production use
          The evaluation period of the license will expire on Nov 30, 2023
Processor information: 1 socket(s), 8 core(s), and 16 thread(s) available
GAMS 45.1.0   Copyright (C) 1987-2023 GAMS Development. All rights reserved
--- Starting compilation
--- generateIncludeFile.gms(76) 2 Mb
--- Initialize embedded library embpycclib64.dll
--- Execute embedded library embpycclib64.dll
Input file: nuts2.geojson
Output file: nuts2.inc
Number of features: 325
--- Starting execution - empty program
*** Status: Normal completion
--- Job generateIncludeFile.gms Stop 10/27/23 12:51:26 elapsed 0:00:01.229
